 This run of the CFX Release 18.1 Solver started at 03:06:51 on 09 Mar
 2019 by user Hussien Hafez on DESKTOP-5JFTL9U (intel_xeon64.sse2_winnt)
 using the command:
 
  "D:\programs\ansys 18.1installation\ANSYS Inc\v181\CFX\bin\perllib\cfx5solve.pl"
    -batch -ccl runInput.ccl -fullname "Fluid Flow CFX_001"
 
 Release 18.1
 
  Point Releases and Patches installed:
  ANSYS, Inc. Products Release 18.1
  ANSYS Mechanical Products Release 18.1
  ANSYS Customization Files for User Programmable Features Release 18.1
  ANSYS Autodyn Release 18.1
  ANSYS LS-DYNA Release 18.1
  ANSYS AIM Release 18.1
  ANSYS CFX (includes ANSYS CFD-Post) Release 18.1
  ANSYS Fluent (includes ANSYS CFD-Post) Release 18.1
  ANSYS TurboGrid Release 18.1
  ANSYS FENSAP-ICE Release 18.1
  ANSYS Polyflow (includes ANSYS CFD-Post) Release 18.1
  ANSYS CFD-Post only Release 18.1
  ANSYS Forte Release 18.1
  ANSYS Chemkin Release 18.1
  ANSYS ICEM CFD Release 18.1
  ANSYS Aqwa Release 18.1
  ANSYS Viewer Release 18.1
  ANSYS Icepak (includes ANSYS CFD-Post) Release 18.1
  AutoCAD Release 18.1
  ACIS Release 18.1
  Catia, Version 4 Release 18.1
  Catia, Version 5 Release 18.1
  Catia, Version 6 Release 18.1
  Creo Elements/Direct Modeling Release 18.1
  Inventor Release 18.1
  JTOpen Release 18.1
  NX Release 18.1
  Parasolid Release 18.1
  Creo Parametric Release 18.1
  Solid Edge Release 18.1
  SolidWorks Release 18.1
  ANSYS, Inc. License Manager Release 18.1
 
 Setting up CFX Solver run ...
 

 +--------------------------------------------------------------------+
 |                                                                    |
 |                    CFX Command Language for Run                    |
 |                                                                    |
 +--------------------------------------------------------------------+

 LIBRARY:
   MATERIAL: Air Ideal Gas
     Material Description = Air Ideal Gas (constant Cp)
     Material Group = Air Data, Calorically Perfect Ideal Gases
     Option = Pure Substance
     Thermodynamic State = Gas
     PROPERTIES:
       Option = General Material
       EQUATION OF STATE:
         Molar Mass = 28.96 [kg kmol^-1]
         Option = Ideal Gas
       END
       SPECIFIC HEAT CAPACITY:
         Option = Value
         Specific Heat Capacity = 1.0044E+03 [J kg^-1 K^-1]
         Specific Heat Type = Constant Pressure
       END
       REFERENCE STATE:
         Option = Specified Point
         Reference Pressure = 1 [atm]
         Reference Specific Enthalpy = 0. [J/kg]
         Reference Specific Entropy = 0. [J/kg/K]
         Reference Temperature = 25 [C]
       END
       DYNAMIC VISCOSITY:
         Dynamic Viscosity = 1.831E-05 [kg m^-1 s^-1]
         Option = Value
       END
       THERMAL CONDUCTIVITY:
         Option = Value
         Thermal Conductivity = 2.61E-2 [W m^-1 K^-1]
       END
       ABSORPTION COEFFICIENT:
         Absorption Coefficient = 0.01 [m^-1]
         Option = Value
       END
       SCATTERING COEFFICIENT:
         Option = Value
         Scattering Coefficient = 0.0 [m^-1]
       END
       REFRACTIVE INDEX:
         Option = Value
         Refractive Index = 1.0 [m m^-1]
       END
     END
   END
 END
 FLOW: Flow Analysis 1
   SOLUTION UNITS:
     Angle Units = [rad]
     Length Units = [m]
     Mass Units = [kg]
     Solid Angle Units = [sr]
     Temperature Units = [K]
     Time Units = [s]
   END
   ANALYSIS TYPE:
     Option = Steady State
     EXTERNAL SOLVER COUPLING:
       Option = None
     END
   END
   DOMAIN: Default Domain
     Coord Frame = Coord 0
     Domain Type = Fluid
     Location = B28
     BOUNDARY: inlet
       Boundary Type = INLET
       Location = inlet
       BOUNDARY CONDITIONS:
         FLOW REGIME:
           Blend Mach Number Type = Normal Speed
           Option = Mixed
         END
         HEAT TRANSFER:
           Option = Static Temperature
           Static Temperature = 300 [K]
         END
         MASS AND MOMENTUM:
           Normal Speed = 175 [m s^-1]
           Option = Normal Speed and Pressure
           Relative Static Pressure = 200000 [Pa]
         END
         TURBULENCE:
           Option = Medium Intensity and Eddy Viscosity Ratio
         END
       END
     END
     BOUNDARY: outlet
       Boundary Type = OUTLET
       Location = outlet
       BOUNDARY CONDITIONS:
         FLOW REGIME:
           Option = Subsonic
         END
         MASS AND MOMENTUM:
           Option = Average Static Pressure
           Pressure Profile Blend = 0.05
           Relative Pressure = 160000 [Pa]
         END
         PRESSURE AVERAGING:
           Option = Average Over Whole Outlet
         END
       END
     END
     BOUNDARY: wall
       Boundary Type = WALL
       Location = walls
       BOUNDARY CONDITIONS:
         HEAT TRANSFER:
           Option = Adiabatic
         END
         MASS AND MOMENTUM:
           Option = No Slip Wall
         END
         WALL ROUGHNESS:
           Option = Smooth Wall
         END
       END
     END
     DOMAIN MODELS:
       BUOYANCY MODEL:
         Option = Non Buoyant
       END
       DOMAIN MOTION:
         Option = Stationary
       END
       MESH DEFORMATION:
         Option = None
       END
       REFERENCE PRESSURE:
         Reference Pressure = 0 [atm]
       END
     END
     FLUID DEFINITION: Fluid 1
       Material = Air Ideal Gas
       Option = Material Library
       MORPHOLOGY:
         Option = Continuous Fluid
       END
     END
     FLUID MODELS:
       COMBUSTION MODEL:
         Option = None
       END
       HEAT TRANSFER MODEL:
         Include Viscous Work Term = True
         Option = Total Energy
       END
       THERMAL RADIATION MODEL:
         Option = None
       END
       TURBULENCE MODEL:
         Option = SST
       END
       TURBULENT WALL FUNCTIONS:
         High Speed Model = On
         Option = Automatic
       END
     END
     INITIALISATION:
       Option = Automatic
       INITIAL CONDITIONS:
         Velocity Type = Cartesian
         CARTESIAN VELOCITY COMPONENTS:
           Option = Automatic
         END
         STATIC PRESSURE:
           Option = Automatic
         END
         TEMPERATURE:
           Option = Automatic
         END
         TURBULENCE INITIAL CONDITIONS:
           Option = Medium Intensity and Eddy Viscosity Ratio
         END
       END
     END
   END
   OUTPUT CONTROL:
     RESULTS:
       File Compression Level = Default
       Option = Standard
     END
   END
   SOLVER CONTROL:
     Turbulence Numerics = First Order
     ADVECTION SCHEME:
       Option = High Resolution
     END
     CONVERGENCE CONTROL:
       Length Scale Option = Conservative
       Maximum Number of Iterations = 1000
       Minimum Number of Iterations = 1
       Timescale Control = Auto Timescale
       Timescale Factor = 1.0
     END
     CONVERGENCE CRITERIA:
       Residual Target = 1e-05
       Residual Type = RMS
     END
     DYNAMIC MODEL CONTROL:
       Global Dynamic Model Control = On
     END
   END
 END
 COMMAND FILE:
   Version = 18.1
   Results Version = 18.1
 END
 SIMULATION CONTROL:
   EXECUTION CONTROL:
     EXECUTABLE SELECTION:
       Double Precision = Yes
       Large Problem = No
     END
     INTERPOLATOR STEP CONTROL:
       Runtime Priority = Standard
       MEMORY CONTROL:
         Memory Allocation Factor = 1.0
       END
     END
     PARALLEL HOST LIBRARY:
       HOST DEFINITION: desktop5jftl9u
         Remote Host Name = DESKTOP-5JFTL9U
         Host Architecture String = winnt-amd64
         Installation Root = D:\programs\ansys 18.1installation\ANSYS \
           Inc\v%v\CFX
       END
     END
     PARTITIONER STEP CONTROL:
       Multidomain Option = Automatic
       Runtime Priority = High
       MEMORY CONTROL:
         Memory Allocation Factor = 1.0
       END
       PARTITION SMOOTHING:
         Maximum Partition Smoothing Sweeps = 100
         Option = Smooth
       END
       PARTITIONING TYPE:
         MeTiS Type = k-way
         Option = MeTiS
         Partition Size Rule = Automatic
         Partition Weight Factors = 0.16667, 0.16667, 0.16667, 0.16667, \
           0.16667, 0.16667
       END
     END
     RUN DEFINITION:
       Run Mode = Full
       Solver Input File = Fluid Flow CFX.def
       Solver Results File = C:/Users/Hussien \
         Hafez/AppData/Local/Temp/WB_DESKTOP-5JFTL9U_Hussien \
         Hafez_12036_7/unsaved_project_pending/dp0_CFX_Solution/Fluid Flow \
         CFX_001.res
     END
     SOLVER STEP CONTROL:
       Runtime Priority = High
       EXECUTABLE SELECTION:
         Double Precision = On
       END
       MEMORY CONTROL:
         Memory Allocation Factor = 1.0
       END
       PARALLEL ENVIRONMENT:
         Number of Processes = 6
         Start Method = Intel MPI Local Parallel
         Parallel Host List = desktop5jftl9u*6
       END
     END
   END
 END
 

 +--------------------------------------------------------------------+
 |                                                                    |
 |                            Partitioning                            |
 |                                                                    |
 +--------------------------------------------------------------------+




 +--------------------------------------------------------------------+
 |                                                                    |
 |                     ANSYS(R) CFX(R) Partitioner                    |
 |                                                                    |
 | Release 18.1                                                       |
 | Build 18.1 2017-04-03T19:35:12.126000                              |
 | Mon Apr  3 20:07:25 GMTDT 2017                                     |
 |                                                                    |
 |                        Executable Attributes                       |
 |                                                                    |
 |         double-64bit-int32-archfort-optimised-noprof-lcomp         |
 |                                                                    |
 | (C) 2017 ANSYS, Inc.                                               |
 |                                                                    |
 | All rights reserved. Unauthorized use, distribution or duplication |
 | is prohibited. This product is subject to U.S. laws governing      |
 | export and re-export. For full Legal Notice, see documentation.    |
 +--------------------------------------------------------------------+




 +--------------------------------------------------------------------+
 |                  Job Information at Start of Run                   |
 +--------------------------------------------------------------------+

 Run mode:       partitioning run

 Host computer:  DESKTOP-5JFTL9U (PID:14584)

 Job started:    Sat Mar 09 03:06:55 2019


 +--------------------------------------------------------------------+
 |        Memory Allocated for Run  (Actual usage may be less)        |
 +--------------------------------------------------------------------+

           | Real       | Integer    | Character | Logical  | Double
 ----------+------------+------------+-----------+----------+----------
 Mwords    |       2.24 |      14.98 |      6.77 |     0.12 |     0.00
 Mbytes    |      17.09 |      57.16 |      6.46 |     0.46 |     0.00
 ----------+------------+------------+-----------+----------+----------


 +--------------------------------------------------------------------+
 |                  Host Memory Information (Mbytes)                  |
 +--------------------------------------------------------------------+
 |          Host           |     System     |   Allocated    |   %    |
 +-------------------------+----------------+----------------+--------+
 | DESKTOP-5JFTL9U         |     16083.44   |        81.17   |   0.50 |
 +-------------------------+----------------+----------------+--------+

 +--------------------------------------------------------------------+
 | The MeTiS partitioning method allocates additional memory.         |
 | Total memory usage will therefore exceed the values shown above.   |
 +--------------------------------------------------------------------+

 +--------------------------------------------------------------------+
 |                      Topology Simplification                       |
 +--------------------------------------------------------------------+

 +--------------------------------------------------------------------+
 |                       ****** Warning ******                        |
 |                                                                    |
 | Topology simplification is activated with the following            |
 | restrictions:                                                      |
 |                                                                    |
 | - Mesh regions referenced only within User Fortran and NOT         |
 |   in the command file will cause the solver to stop.               |
 | - The solver will stop during any "Edit Run in Progress" step      |
 |   if new 2D regions are referenced.                                |
 +--------------------------------------------------------------------+

 +--------------------------------------------------------------------+
 |                          Mesh Statistics                           |
 +--------------------------------------------------------------------+

 Domain Name : Default Domain

     Total Number of Nodes                                =      289992

     Total Number of Elements                             =      378590
         Total Number of Prisms                           =      201790
         Total Number of Hexahedrons                      =      176800

     Total Number of Faces                                =       26588

 +--------------------------------------------------------------------+
 |                     Vertex Based Partitioning                      |
 +--------------------------------------------------------------------+

 Partitioning of domain: Default Domain

 - Partitioning tool:       MeTiS multilevel k-way algorithm
 - Number of partitions:             6
 - Number of graph-nodes:       289992
 - Number of graph-edges:      1919140

 +--------------------------------------------------------------------+
 |                 Iso-Partition Connection Statistics                |
 +--------------------------------------------------------------------+
 | Domains in Group          |        |           Vertices            |
 |                           | Smooth +---------+----------+----------+
 |                           | Sweeps |  Moves  |   <25%   |   <50%   |
 +---------------------------+--------+---------+----------+----------+
 | Default Domain            |     3  |      28 |       0  |      30  |
 +---------------------------+--------+---------+----------+----------+

 +--------------------------------------------------------------------+
 |                      Partitioning Information                      |
 +--------------------------------------------------------------------+

 Partitioning information for domain: Default Domain

        +------------------+------------------------+-----------------+
        |     Elements     |        Vertices        |     Faces       |
 +------+------------------+------------------------+-----------------+
 | Part |   Number     %   |   Number     %   %Ovlp |  Number     %   |
 +------+------------------+------------------------+-----------------+
 | Full |    378590        |    289992              |    26588        |
 +------+------------------+------------------------+-----------------+
 |    1 |     65878   16.7 |     51864   16.6   6.8 |     4724   17.3 |
 |    2 |     65024   16.5 |     51650   16.5   6.6 |     4920   18.0 |
 |    3 |     68139   17.3 |     53959   17.2   8.6 |     4023   14.7 |
 |    4 |     65246   16.5 |     52141   16.6   8.3 |     4234   15.5 |
 |    5 |     66862   16.9 |     52877   16.9   7.5 |     4430   16.2 |
 |    6 |     63686   16.1 |     50874   16.2   6.8 |     5048   18.4 |
 +------+------------------+------------------------+-----------------+
 | Min  |     63686   16.1 |     50874   16.2   6.6 |     4023   14.7 |
 |(part)|           (    6)|           (    6     2)|          (    3)|
 +------+------------------+------------------------+-----------------+
 | Max  |     68139   17.3 |     53959   17.2   8.6 |     5048   18.4 |
 |(part)|           (    3)|           (    3     3)|          (    6)|
 +------+------------------+------------------------+-----------------+
 | Ave  |     65806   16.7 |     52228   16.7   7.4 |     4563   16.7 |
 +------+------------------+------------------------+-----------------+
 | Sum  |    394835  100.0 |    313365  100.0       |    27379  100.0 |
 +------+------------------+------------------------+-----------------+

 +--------------------------------------------------------------------+
 |                 Partitioning CPU-Time Requirements                 |
 +--------------------------------------------------------------------+
 Preparations                   1.90E-01   12.7 %
 Low-level Mesh Partitioning    2.50E-01   16.7 %
 File Reading                   1.20E-01    8.0 %
 Partition Smoothing            1.90E-01   12.7 %
 Topology - Global              1.00E-02    0.7 %
 Topology - Element/Face/Patch  4.00E-02    2.7 %
 Data Compression               1.00E-02    0.7 %
 File Writing                   1.10E-01    7.3 %
 Miscellaneous                  5.80E-01   38.7 %
                                --------
 Total                          1.50E+00

 +--------------------------------------------------------------------+
 |                   Job Information at End of Run                    |
 +--------------------------------------------------------------------+

 Host computer:  DESKTOP-5JFTL9U (PID:14584)

 Job finished:   Sat Mar 09 03:06:57 2019

 Total wall clock time: 1.500E+00 seconds
             or: (          0:         0:         0:     1.500 )
                 (       Days:     Hours:   Minutes:   Seconds )


 +--------------------------------------------------------------------+
 |                                                                    |
 |                               Solver                               |
 |                                                                    |
 +--------------------------------------------------------------------+




 +--------------------------------------------------------------------+
 |                                                                    |
 |                       ANSYS(R) CFX(R) Solver                       |
 |                                                                    |
 | Release 18.1                                                       |
 | Build 18.1 2017-04-03T19:35:12.126000                              |
 | Mon Apr  3 20:07:25 GMTDT 2017                                     |
 |                                                                    |
 |                        Executable Attributes                       |
 |                                                                    |
 |         double-64bit-int32-archfort-optimised-noprof-lcomp         |
 |                                                                    |
 | (C) 2017 ANSYS, Inc.                                               |
 |                                                                    |
 | All rights reserved. Unauthorized use, distribution or duplication |
 | is prohibited. This product is subject to U.S. laws governing      |
 | export and re-export. For full Legal Notice, see documentation.    |
 +--------------------------------------------------------------------+




 +--------------------------------------------------------------------+
 |                  Job Information at Start of Run                   |
 +--------------------------------------------------------------------+

 Run mode:       parallel run (MPI)

 Job started:    Sat Mar 09 03:06:58 2019

 +--------------------------------------------------------------------+
 |                        License Information                         |
 +--------------------------------------------------------------------+
 
 License Cap:    ANSYS CFX Solver (Max 512K Nodes)
 License Cap:     Parallel
 License ID:     DESKTOP-5JFTL9U-Hussien_Hafez-3636-013668


 +--------------------------------------------------------------------+
 |        Memory Allocated for Run  (Actual usage may be less)        |
 +--------------------------------------------------------------------+

 Allocated storage in:    Mwords
                          Mbytes

 Partition | Real       | Integer    | Character | Logical  | Double
 ----------+------------+------------+-----------+----------+----------
   Minimum |      22.23 |       5.03 |      7.22 |     0.12 |     0.01
  (     4) |     169.60 |      19.19 |      6.89 |     0.11 |     0.06
 ----------+------------+------------+-----------+----------+----------
   Maximum |      22.42 |       5.23 |      7.22 |     0.12 |     0.01
  (     1) |     171.02 |      19.94 |      6.89 |     0.11 |     0.06
 ----------+------------+------------+-----------+----------+----------
   Average |      22.34 |       5.12 |      7.22 |     0.12 |     0.01
           |     170.44 |      19.54 |      6.89 |     0.11 |     0.06
 ----------+------------+------------+-----------+----------+----------
     Total |     134.04 |      30.74 |     43.33 |     0.72 |     0.05
           |    1022.62 |     117.25 |     41.32 |     0.69 |     0.37
 ----------+------------+------------+-----------+----------+----------


 +--------------------------------------------------------------------+
 |                  Host Memory Information (Mbytes)                  |
 +--------------------------------------------------------------------+
 |           Host         | Npart |   System    |  Allocated  |   %   |
 +------------------------+-------+-------------+-------------+-------+
 | DESKTOP-5JFTL9U        |    6  |    16083.44 |     1182.24 |  7.35 |
 +------------------------+-------+-------------+-------------+-------+

 +--------------------------------------------------------------------+
 |                      Process Affinity Summary                      |
 +--------------------------------------------------------------------+

 Note: Processing elements are oversubscribed on   1 hosts.

 Note: Multiple hyperthreads used on   1 hosts.


 +--------------------------------------------------------------------+
 |                     ****** Notice ******                           |
 | The Wall Heat Transfer Coefficient written to the results file for |
 | any turbulent phase with heat transfer is based on the turbulent   |
 | wall function coefficient. It is consistent with the Wall Heat Flux|
 | the wall temperature, and the Wall Adjacent Temperature            |
 | (near-wall temperature).  If you would like it to be based on a    |
 | user-specified bulk temperature instead, please set the expert     |
 | parameter "tbulk for htc = <value>".                               |
 +--------------------------------------------------------------------+

 +--------------------------------------------------------------------+
 |                      Topology Simplification                       |
 +--------------------------------------------------------------------+

 +--------------------------------------------------------------------+
 |                       ****** Warning ******                        |
 |                                                                    |
 | Topology simplification is activated with the following            |
 | restrictions:                                                      |
 |                                                                    |
 | - Mesh regions referenced only within User Fortran and NOT         |
 |   in the command file will cause the solver to stop.               |
 | - The solver will stop during any "Edit Run in Progress" step      |
 |   if new 2D regions are referenced.                                |
 +--------------------------------------------------------------------+

 +--------------------------------------------------------------------+
 |                          Mesh Statistics                           |
 +--------------------------------------------------------------------+
 | Domain Name          | Orthog. Angle | Exp. Factor  | Aspect Ratio |
 +----------------------+---------------+--------------+--------------+
 |                      | Minimum [deg] |   Maximum    |    Maximum   |
 +----------------------+---------------+--------------+--------------+
 | Default Domain       |       63.3 OK |         4 OK |        52 OK |
 +----------------------+---------------+--------------+--------------+
 |                      |  %!  %ok  %OK | %!  %ok  %OK | %!  %ok  %OK |
 +----------------------+---------------+--------------+--------------+
 | Default Domain       |   0    0  100 |  0    0  100 |  0    0  100 |
 +----------------------+---------------+--------------+--------------+

 Domain Name : Default Domain

     Total Number of Nodes                                =      289992

     Total Number of Elements                             =      378590
         Total Number of Prisms                           =      201790
         Total Number of Hexahedrons                      =      176800

     Total Number of Faces                                =       26588

 +--------------------------------------------------------------------+
 |                     Average Scale Information                      |
 +--------------------------------------------------------------------+

 Domain Name : Default Domain
     Global Length                                         = 3.6978E-01
     Minimum Extent                                        = 3.2700E-01
     Maximum Extent                                        = 8.4000E-01
     Density                                               = 2.0897E+00
     Dynamic Viscosity                                     = 1.8310E-05
     Velocity                                              = 1.7500E+02
     Advection Time                                        = 2.1130E-03
     Reynolds Number                                       = 7.3853E+06
     Speed of Sound                                        = 3.4728E+02
     Mach Number                                           = 5.0391E-01
     Thermal Conductivity                                  = 2.6100E-02
     Specific Heat Capacity at Constant Pressure           = 1.0044E+03
     Specific Heat Capacity at Constant Volume             = 7.1730E+02
     Specific Heat Ratio                                   = 1.4003E+00
     Prandtl Number                                        = 7.0462E-01

 +--------------------------------------------------------------------+
 |                Checking for Isolated Fluid Regions                 |
 +--------------------------------------------------------------------+
 
 No isolated fluid regions were found.

 +--------------------------------------------------------------------+
 |              The Equations Solved in This Calculation              |
 +--------------------------------------------------------------------+

 Subsystem : Wall Scale

   Wallscale

 Subsystem : Momentum and Mass

   U-Mom
   V-Mom
   W-Mom
   P-Mass

 Subsystem : Heat Transfer

   H-Energy

 Subsystem : TurbKE and TurbFreq

   K-TurbKE
   O-TurbFreq
                   
 CFD Solver started: Sat Mar 09 03:07:39 2019


 +--------------------------------------------------------------------+
 |                       Convergence History                          |
 +--------------------------------------------------------------------+

 ======================================================================
 |                        Timescale Information                       |
 ----------------------------------------------------------------------
 |       Equation       |         Type          |      Timescale      |
 +----------------------+-----------------------+---------------------+
 | U-Mom                | Auto Timescale        |     6.33909E-04     |
 | V-Mom                | Auto Timescale        |     6.33909E-04     |
 | W-Mom                | Auto Timescale        |     6.33909E-04     |
 | P-Mass               | Auto Timescale        |     6.33909E-04     |
 +----------------------+-----------------------+---------------------+
 | H-Energy             | Auto Timescale        |     6.33909E-04     |
 +----------------------+-----------------------+---------------------+
 | K-TurbKE             | Auto Timescale        |     6.33909E-04     |
 | O-TurbFreq           | Auto Timescale        |     6.33909E-04     |
 +----------------------+-----------------------+---------------------+

 ======================================================================
 OUTER LOOP ITERATION =    1                    CPU SECONDS = 2.501E+02
 ----------------------------------------------------------------------
 |       Equation       | Rate | RMS Res | Max Res |  Linear Solution |
 +----------------------+------+---------+---------+------------------+
 | Wallscale            | 0.00 | 1.2E-03 | 7.3E-03 | 30.1  9.7E-02  OK|
 +----------------------+------+---------+---------+------------------+
 | U-Mom                | 0.00 | 9.8E-03 | 9.6E-02 |       9.6E-03  OK|
 | V-Mom                | 0.00 | 2.0E-04 | 1.3E-03 |       4.0E+00  ok|
 | W-Mom                | 0.00 | 2.0E-04 | 1.3E-03 |       3.9E+00  ok|
 | P-Mass               | 0.00 | 7.7E-04 | 1.1E-02 | 10.7  3.0E-02  OK|
 +----------------------+------+---------+---------+------------------+
 | H-Energy             | 0.00 | 2.7E-02 | 4.1E-01 |  5.8  8.3E-03  OK|
 +----------------------+------+---------+---------+------------------+
 | K-TurbKE             | 0.00 | 1.1E+00 | 1.2E+00 |  5.9  8.1E-09  OK|
 | O-TurbFreq           | 0.00 | 7.7E-01 | 1.4E+00 |  7.3  8.8E-10  OK|
 +----------------------+------+---------+---------+------------------+

 ======================================================================
 OUTER LOOP ITERATION =    2                    CPU SECONDS = 3.201E+02
 ----------------------------------------------------------------------
 |       Equation       | Rate | RMS Res | Max Res |  Linear Solution |
 +----------------------+------+---------+---------+------------------+
 | Wallscale            | 0.20 | 2.3E-04 | 4.1E-03 | 34.9  7.5E-02  OK|
 +----------------------+------+---------+---------+------------------+
 | U-Mom                | 0.74 | 7.3E-03 | 2.4E-02 |       6.0E-03  OK|
 | V-Mom                |30.97 | 6.1E-03 | 6.3E-02 |       3.2E-02  OK|
 | W-Mom                |30.99 | 6.1E-03 | 6.3E-02 |       3.2E-02  OK|
 | P-Mass               | 0.20 | 1.5E-04 | 2.1E-03 | 10.7  6.9E-02  OK|
 +----------------------+------+---------+---------+------------------+
 | H-Energy             | 1.03 | 2.8E-02 | 4.1E-01 |  5.9  2.6E-03  OK|
 +----------------------+------+---------+---------+------------------+
 | K-TurbKE             | 0.05 | 5.1E-02 | 2.6E-01 |  5.9  4.3E-08  OK|
 | O-TurbFreq           | 0.54 | 4.1E-01 | 4.8E-01 |  7.5  7.4E-09  OK|
 +----------------------+------+---------+---------+------------------+

 ======================================================================
 OUTER LOOP ITERATION =    3                    CPU SECONDS = 4.146E+02
 ----------------------------------------------------------------------
 |       Equation       | Rate | RMS Res | Max Res |  Linear Solution |
 +----------------------+------+---------+---------+------------------+
 | Wallscale            | 0.30 | 6.9E-05 | 1.1E-03 | 34.9  7.7E-02  OK|
 +----------------------+------+---------+---------+------------------+
 | U-Mom                | 1.15 | 8.4E-03 | 3.5E-02 |       5.0E-03  OK|
 | V-Mom                | 0.77 | 4.7E-03 | 4.9E-02 |       6.9E-02  OK|
 | W-Mom                | 0.77 | 4.7E-03 | 4.9E-02 |       7.0E-02  OK|
 | P-Mass               | 0.88 | 1.4E-04 | 3.2E-03 | 10.7  3.7E-02  OK|
 +----------------------+------+---------+---------+------------------+
 | H-Energy             | 0.88 | 2.4E-02 | 2.9E-01 |  5.9  7.0E-03  OK|
 +----------------------+------+---------+---------+------------------+
 | K-TurbKE             | 1.07 | 5.4E-02 | 3.3E-01 |  5.9  1.7E-07  OK|
 | O-TurbFreq           | 0.43 | 1.8E-01 | 2.2E-01 |  8.1  7.4E-08  OK|
 +----------------------+------+---------+---------+------------------+

 ======================================================================
 OUTER LOOP ITERATION =    4                    CPU SECONDS = 5.071E+02
 ----------------------------------------------------------------------
 |       Equation       | Rate | RMS Res | Max Res |  Linear Solution |
 +----------------------+------+---------+---------+------------------+
 | Wallscale            | 0.31 | 2.1E-05 | 3.3E-04 | 34.9  7.8E-02  OK|
 +----------------------+------+---------+---------+------------------+
 | U-Mom                | 0.85 | 7.1E-03 | 3.6E-02 |       6.5E-03  OK|
 | V-Mom                | 0.48 | 2.2E-03 | 3.0E-02 |       2.3E-01  ok|
 | W-Mom                | 0.48 | 2.2E-03 | 2.9E-02 |       2.4E-01  ok|
 | P-Mass               | 0.87 | 1.2E-04 | 2.7E-03 | 10.7  3.6E-02  OK|
 +----------------------+------+---------+---------+------------------+
 | H-Energy             | 2.14 | 5.2E-02 | 4.3E-01 |  5.9  3.3E-03  OK|
 +----------------------+------+---------+---------+------------------+
 | K-TurbKE             | 0.76 | 4.1E-02 | 2.6E-01 |  5.9  8.8E-06  OK|
 | O-TurbFreq           | 0.46 | 8.1E-02 | 2.4E-01 |  7.3  6.0E-07  OK|
 +----------------------+------+---------+---------+------------------+

 ======================================================================
 OUTER LOOP ITERATION =    5                    CPU SECONDS = 6.002E+02
 ----------------------------------------------------------------------
 |       Equation       | Rate | RMS Res | Max Res |  Linear Solution |
 +----------------------+------+---------+---------+------------------+
 | Wallscale            | 0.31 | 6.7E-06 | 1.0E-04 | 34.9  7.9E-02  OK|
 +----------------------+------+---------+---------+------------------+
 | U-Mom                | 0.76 | 5.4E-03 | 2.7E-02 |       8.2E-03  OK|
 | V-Mom                | 0.43 | 9.6E-04 | 1.4E-02 |       3.3E-01  ok|
 | W-Mom                | 0.43 | 9.6E-04 | 1.4E-02 |       3.5E-01  ok|
 | P-Mass               | 0.80 | 9.4E-05 | 1.7E-03 | 10.7  6.2E-02  OK|
 +----------------------+------+---------+---------+------------------+
 | H-Energy             | 0.63 | 3.3E-02 | 1.9E-01 |  5.9  4.9E-03  OK|
 +----------------------+------+---------+---------+------------------+
 | K-TurbKE             | 0.89 | 3.7E-02 | 1.5E-01 |  5.9  1.0E-05  OK|
 | O-TurbFreq           | 0.60 | 4.9E-02 | 2.4E-01 | 12.0  2.6E-10  OK|
 +----------------------+------+---------+---------+------------------+

 ======================================================================
 |                        Timescale Information                       |
 ----------------------------------------------------------------------
 |       Equation       |         Type          |      Timescale      |
 +----------------------+-----------------------+---------------------+
 | U-Mom                | Auto Timescale        |     4.77836E-04     |
 | V-Mom                | Auto Timescale        |     4.77836E-04     |
 | W-Mom                | Auto Timescale        |     4.77836E-04     |
 | P-Mass               | Auto Timescale        |     4.77836E-04     |
 +----------------------+-----------------------+---------------------+
 | H-Energy             | Auto Timescale        |     4.77836E-04     |
 +----------------------+-----------------------+---------------------+
 | K-TurbKE             | Auto Timescale        |     4.77836E-04     |
 | O-TurbFreq           | Auto Timescale        |     4.77836E-04     |
 +----------------------+-----------------------+---------------------+

 ======================================================================
 OUTER LOOP ITERATION =    6                    CPU SECONDS = 6.945E+02
 ----------------------------------------------------------------------
 |       Equation       | Rate | RMS Res | Max Res |  Linear Solution |
 +----------------------+------+---------+---------+------------------+
 | U-Mom                | 0.78 | 4.2E-03 | 2.3E-02 |       6.3E-03  OK|
 | V-Mom                | 0.53 | 5.1E-04 | 7.5E-03 |       2.5E-01  ok|
 | W-Mom                | 0.53 | 5.1E-04 | 7.4E-03 |       2.8E-01  ok|
 | P-Mass               | 1.06 | 1.0E-04 | 9.6E-04 | 10.7  4.8E-02  OK|
 +----------------------+------+---------+---------+------------------+
 | H-Energy             | 0.92 | 3.0E-02 | 2.3E-01 |  5.8  4.9E-03  OK|
 +----------------------+------+---------+---------+------------------+
 | K-TurbKE             | 1.13 | 4.1E-02 | 2.3E-01 |  5.9  1.9E-05  OK|
 | O-TurbFreq           | 0.53 | 2.6E-02 | 1.6E-01 | 12.2  9.5E-10  OK|
 +----------------------+------+---------+---------+------------------+

 ======================================================================
 OUTER LOOP ITERATION =    7                    CPU SECONDS = 7.690E+02
 ----------------------------------------------------------------------
 |       Equation       | Rate | RMS Res | Max Res |  Linear Solution |
 +----------------------+------+---------+---------+------------------+
 | U-Mom                | 0.99 | 4.1E-03 | 3.5E-02 |       7.6E-03  OK|
 | V-Mom                | 0.64 | 3.2E-04 | 3.8E-03 |       2.5E-01  ok|
 | W-Mom                | 0.64 | 3.3E-04 | 3.8E-03 |       2.7E-01  ok|
 | P-Mass               | 1.06 | 1.1E-04 | 9.8E-04 | 10.7  5.5E-02  OK|
 +----------------------+------+---------+---------+------------------+
 +--------------------------------------------------------------------+
 |                     ****** Notice ******                           |
 |  A wall has been placed at portion(s) of an OUTLET                 |
 |  boundary condition (at   5.5% of the faces,   0.4% of the area)   |
 |  to prevent fluid from flowing into the domain.                    |
 |  The boundary condition name is: outlet.                           |
 |  The fluid name is: Fluid 1.                                       |
 |  If this situation persists, consider switching                    |
 |  to an Opening type boundary condition instead.                    |
 +--------------------------------------------------------------------+
 | H-Energy             | 0.90 | 2.7E-02 | 1.4E-01 |  5.9  5.1E-03  OK|
 +----------------------+------+---------+---------+------------------+
 | K-TurbKE             | 0.77 | 3.2E-02 | 1.8E-01 |  5.9  3.4E-05  OK|
 | O-TurbFreq           | 1.08 | 2.8E-02 | 1.9E-01 |  7.2  2.1E-04  OK|
 +----------------------+------+---------+---------+------------------+

 ======================================================================
 OUTER LOOP ITERATION =    8                    CPU SECONDS = 8.358E+02
 ----------------------------------------------------------------------
 |       Equation       | Rate | RMS Res | Max Res |  Linear Solution |
 +----------------------+------+---------+---------+------------------+
 | U-Mom                | 1.44 | 6.0E-03 | 8.6E-02 |       9.7E-03  OK|
 | V-Mom                | 1.34 | 4.3E-04 | 8.0E-03 |       2.9E-01  ok|
 | W-Mom                | 1.38 | 4.5E-04 | 8.1E-03 |       3.1E-01  ok|
 | P-Mass               | 1.05 | 1.1E-04 | 1.0E-03 | 10.7  6.5E-02  OK|
 +----------------------+------+---------+---------+------------------+
 +--------------------------------------------------------------------+
 |                     ****** Notice ******                           |
 |  A wall has been placed at portion(s) of an OUTLET                 |
 |  boundary condition (at  19.0% of the faces,   1.3% of the area)   |
 |  to prevent fluid from flowing into the domain.                    |
 |  The boundary condition name is: outlet.                           |
 |  The fluid name is: Fluid 1.                                       |
 |  If this situation persists, consider switching                    |
 |  to an Opening type boundary condition instead.                    |
 +--------------------------------------------------------------------+
 | H-Energy             | 0.83 | 2.3E-02 | 2.5E-01 |  5.9  6.1E-03  OK|
 +----------------------+------+---------+---------+------------------+
 | K-TurbKE             | 0.93 | 2.9E-02 | 3.1E-01 |  5.9  3.3E-05  OK|
 | O-TurbFreq           | 1.02 | 2.9E-02 | 2.4E-01 |  7.5  5.4E-04  OK|
 +----------------------+------+---------+---------+------------------+

 ======================================================================
 OUTER LOOP ITERATION =    9                    CPU SECONDS = 8.988E+02
 ----------------------------------------------------------------------
 |       Equation       | Rate | RMS Res | Max Res |  Linear Solution |
 +----------------------+------+---------+---------+------------------+
 | U-Mom                | 1.65 | 9.8E-03 | 1.8E-01 |       1.2E-02  OK|
 | V-Mom                | 1.73 | 7.5E-04 | 2.0E-02 |       3.6E-01  ok|
 | W-Mom                | 1.72 | 7.8E-04 | 1.8E-02 |       3.8E-01  ok|
 | P-Mass               | 0.82 | 9.0E-05 | 9.1E-04 | 10.7  7.9E-02  OK|
 +----------------------+------+---------+---------+------------------+
 +--------------------------------------------------------------------+
 |                     ****** Notice ******                           |
 |  A wall has been placed at portion(s) of an OUTLET                 |
 |  boundary condition (at  25.1% of the faces,   2.0% of the area)   |
 |  to prevent fluid from flowing into the domain.                    |
 |  The boundary condition name is: outlet.                           |
 |  The fluid name is: Fluid 1.                                       |
 |  If this situation persists, consider switching                    |
 |  to an Opening type boundary condition instead.                    |
 +--------------------------------------------------------------------+
 | H-Energy             | 0.91 | 2.0E-02 | 3.0E-01 |  5.8  5.4E-03  OK|
 +----------------------+------+---------+---------+------------------+
 | K-TurbKE             | 1.01 | 3.0E-02 | 3.1E-01 |  5.9  5.5E-05  OK|
 | O-TurbFreq           | 1.15 | 3.3E-02 | 2.8E-01 |  7.5  4.8E-04  OK|
 +----------------------+------+---------+---------+------------------+

 ======================================================================
 OUTER LOOP ITERATION =   10                    CPU SECONDS = 9.623E+02
 ----------------------------------------------------------------------
 |       Equation       | Rate | RMS Res | Max Res |  Linear Solution |
 +----------------------+------+---------+---------+------------------+
 | U-Mom                | 1.13 | 1.1E-02 | 1.8E-01 |       1.5E-02  OK|
 | V-Mom                | 1.18 | 8.9E-04 | 2.0E-02 |       3.6E-01  ok|
 | W-Mom                | 1.20 | 9.3E-04 | 2.0E-02 |       3.8E-01  ok|
 | P-Mass               | 0.84 | 7.6E-05 | 8.1E-04 | 10.7  9.3E-02  OK|
 +----------------------+------+---------+---------+------------------+
 +--------------------------------------------------------------------+
 |                     ****** Notice ******                           |
 |  A wall has been placed at portion(s) of an OUTLET                 |
 |  boundary condition (at  28.0% of the faces,   2.3% of the area)   |
 |  to prevent fluid from flowing into the domain.                    |
 |  The boundary condition name is: outlet.                           |
 |  The fluid name is: Fluid 1.                                       |
 |  If this situation persists, consider switching                    |
 |  to an Opening type boundary condition instead.                    |
 +--------------------------------------------------------------------+
 | H-Energy             | 0.96 | 2.0E-02 | 2.9E-01 |  5.8  6.2E-03  OK|
 +----------------------+------+---------+---------+------------------+
 | K-TurbKE             | 1.23 | 3.6E-02 | 4.5E-01 |  5.9  1.4E-04  OK|
 | O-TurbFreq           | 1.22 | 4.0E-02 | 3.5E-01 |  7.5  2.7E-04  OK|
 +----------------------+------+---------+---------+------------------+

 ======================================================================
 |                        Timescale Information                       |
 ----------------------------------------------------------------------
 |       Equation       |         Type          |      Timescale      |
 +----------------------+-----------------------+---------------------+
 | U-Mom                | Auto Timescale        |     4.27165E-04     |
 | V-Mom                | Auto Timescale        |     4.27165E-04     |
 | W-Mom                | Auto Timescale        |     4.27165E-04     |
 | P-Mass               | Auto Timescale        |     4.27165E-04     |
 +----------------------+-----------------------+---------------------+
 | H-Energy             | Auto Timescale        |     4.27165E-04     |
 +----------------------+-----------------------+---------------------+
 | K-TurbKE             | Auto Timescale        |     4.27165E-04     |
 | O-TurbFreq           | Auto Timescale        |     4.27165E-04     |
 +----------------------+-----------------------+---------------------+

 ======================================================================
 OUTER LOOP ITERATION =   11                    CPU SECONDS = 1.026E+03
 ----------------------------------------------------------------------
 |       Equation       | Rate | RMS Res | Max Res |  Linear Solution |
 +----------------------+------+---------+---------+------------------+
 | U-Mom                | 1.01 | 1.1E-02 | 1.6E-01 |       1.3E-02  OK|
 | V-Mom                | 1.05 | 9.3E-04 | 1.7E-02 |       2.0E-01  ok|
 | W-Mom                | 1.02 | 9.5E-04 | 1.7E-02 |       2.1E-01  ok|
 | P-Mass               | 0.97 | 7.4E-05 | 9.8E-04 | 10.7  8.5E-02  OK|
 +----------------------+------+---------+---------+------------------+
 +--------------------------------------------------------------------+
 |                     ****** Notice ******                           |
 |  A wall has been placed at portion(s) of an OUTLET                 |
 |  boundary condition (at  28.0% of the faces,   2.3% of the area)   |
 |  to prevent fluid from flowing into the domain.                    |
 |  The boundary condition name is: outlet.                           |
 |  The fluid name is: Fluid 1.                                       |
 |  If this situation persists, consider switching                    |
 |  to an Opening type boundary condition instead.                    |
 +--------------------------------------------------------------------+
 | H-Energy             | 1.40 | 2.7E-02 | 4.4E-01 |  5.8  3.5E-03  OK|
 +----------------------+------+---------+---------+------------------+
 | K-TurbKE             | 0.81 | 2.9E-02 | 4.1E-01 |  5.8  8.4E-04  OK|
 | O-TurbFreq           | 0.96 | 3.9E-02 | 3.4E-01 |  7.4  2.9E-04  OK|
 +----------------------+------+---------+---------+------------------+

 ======================================================================
 OUTER LOOP ITERATION =   12                    CPU SECONDS = 1.089E+03
 ----------------------------------------------------------------------
 |       Equation       | Rate | RMS Res | Max Res |  Linear Solution |
 +----------------------+------+---------+---------+------------------+
 | U-Mom                | 0.91 | 1.0E-02 | 1.5E-01 |       1.3E-02  OK|
 | V-Mom                | 0.93 | 8.6E-04 | 1.7E-02 |       1.1E-01  ok|
 | W-Mom                | 0.93 | 8.8E-04 | 1.8E-02 |       1.2E-01  ok|
 | P-Mass               | 1.05 | 7.8E-05 | 1.2E-03 | 10.7  7.9E-02  OK|
 +----------------------+------+---------+---------+------------------+
 +--------------------------------------------------------------------+
 |                     ****** Notice ******                           |
 |  A wall has been placed at portion(s) of an OUTLET                 |
 |  boundary condition (at  28.0% of the faces,   2.3% of the area)   |
 |  to prevent fluid from flowing into the domain.                    |
 |  The boundary condition name is: outlet.                           |
 |  The fluid name is: Fluid 1.                                       |
 |  If this situation persists, consider switching                    |
 |  to an Opening type boundary condition instead.                    |
 +--------------------------------------------------------------------+
 | H-Energy             | 1.33 | 3.6E-02 | 5.3E-01 |  5.8  2.5E-03  OK|
 +----------------------+------+---------+---------+------------------+
 | K-TurbKE             | 0.85 | 2.5E-02 | 5.2E-01 |  5.8  2.4E-03  OK|
 | O-TurbFreq           | 0.77 | 3.0E-02 | 2.9E-01 |  7.2  6.5E-04  OK|
 +----------------------+------+---------+---------+------------------+

 ======================================================================
 OUTER LOOP ITERATION =   13                    CPU SECONDS = 1.163E+03
 ----------------------------------------------------------------------
 |       Equation       | Rate | RMS Res | Max Res |  Linear Solution |
 +----------------------+------+---------+---------+------------------+
 | U-Mom                | 0.85 | 8.7E-03 | 1.3E-01 |       1.1E-02  OK|
 | V-Mom                | 0.87 | 7.5E-04 | 1.8E-02 |       7.2E-02  OK|
 | W-Mom                | 0.87 | 7.6E-04 | 1.9E-02 |       7.7E-02  OK|
 | P-Mass               | 1.16 | 9.0E-05 | 1.3E-03 | 10.7  6.2E-02  OK|
 +----------------------+------+---------+---------+------------------+
 +--------------------------------------------------------------------+
 |                     ****** Notice ******                           |
 |  A wall has been placed at portion(s) of an OUTLET                 |
 |  boundary condition (at  28.0% of the faces,   2.3% of the area)   |
 |  to prevent fluid from flowing into the domain.                    |
 |  The boundary condition name is: outlet.                           |
 |  The fluid name is: Fluid 1.                                       |
 |  If this situation persists, consider switching                    |
 |  to an Opening type boundary condition instead.                    |
 +--------------------------------------------------------------------+
 | H-Energy             | 0.92 | 3.4E-02 | 6.0E-01 |  5.8  4.7E-03  OK|
 +----------------------+------+---------+---------+------------------+
 | K-TurbKE             | 0.72 | 1.8E-02 | 4.0E-01 |  5.8  4.3E-03  OK|
 | O-TurbFreq           | 0.68 | 2.0E-02 | 2.1E-01 |  7.2  1.1E-03  OK|
 +----------------------+------+---------+---------+------------------+

 ======================================================================
 OUTER LOOP ITERATION =   14                    CPU SECONDS = 1.240E+03
 ----------------------------------------------------------------------
 |       Equation       | Rate | RMS Res | Max Res |  Linear Solution |
 +----------------------+------+---------+---------+------------------+
 | U-Mom                | 0.71 | 6.1E-03 | 1.0E-01 |       9.2E-03  OK|
 | V-Mom                | 0.80 | 6.0E-04 | 1.2E-02 |       5.2E-02  OK|
 | W-Mom                | 0.79 | 6.1E-04 | 1.3E-02 |       5.5E-02  OK|
 | P-Mass               | 1.18 | 1.1E-04 | 1.5E-03 | 10.7  4.7E-02  OK|
 +----------------------+------+---------+---------+------------------+
 +--------------------------------------------------------------------+
 |                     ****** Notice ******                           |
 |  A wall has been placed at portion(s) of an OUTLET                 |
 |  boundary condition (at  34.8% of the faces,   3.4% of the area)   |
 |  to prevent fluid from flowing into the domain.                    |
 |  The boundary condition name is: outlet.                           |
 |  The fluid name is: Fluid 1.                                       |
 |  If this situation persists, consider switching                    |
 |  to an Opening type boundary condition instead.                    |
 +--------------------------------------------------------------------+
 | H-Energy             | 0.84 | 2.8E-02 | 4.4E-01 |  5.8  4.8E-03  OK|
 +----------------------+------+---------+---------+------------------+
 | K-TurbKE             | 0.71 | 1.3E-02 | 2.8E-01 |  5.8  6.3E-03  OK|
 | O-TurbFreq           | 0.72 | 1.4E-02 | 1.4E-01 |  7.1  1.5E-03  OK|
 +----------------------+------+---------+---------+------------------+

 ======================================================================
 OUTER LOOP ITERATION =   15                    CPU SECONDS = 1.315E+03
 ----------------------------------------------------------------------
 |       Equation       | Rate | RMS Res | Max Res |  Linear Solution |
 +----------------------+------+---------+---------+------------------+
 | U-Mom                | 0.84 | 5.2E-03 | 9.0E-02 |       8.4E-03  OK|
 | V-Mom                | 0.84 | 5.0E-04 | 9.4E-03 |       4.3E-02  OK|
 | W-Mom                | 0.83 | 5.1E-04 | 1.1E-02 |       4.5E-02  OK|
 | P-Mass               | 1.07 | 1.1E-04 | 1.7E-03 | 10.7  4.3E-02  OK|
 +----------------------+------+---------+---------+------------------+
 +--------------------------------------------------------------------+
 |                     ****** Notice ******                           |
 |  A wall has been placed at portion(s) of an OUTLET                 |
 |  boundary condition (at  46.1% of the faces,   5.9% of the area)   |
 |  to prevent fluid from flowing into the domain.                    |
 |  The boundary condition name is: outlet.                           |
 |  The fluid name is: Fluid 1.                                       |
 |  If this situation persists, consider switching                    |
 |  to an Opening type boundary condition instead.                    |
 +--------------------------------------------------------------------+
 | H-Energy             | 0.82 | 2.3E-02 | 3.7E-01 |  5.8  5.8E-03  OK|
 +----------------------+------+---------+---------+------------------+
 | K-TurbKE             | 0.85 | 1.1E-02 | 2.0E-01 |  5.8  8.3E-03  OK|
 | O-TurbFreq           | 0.87 | 1.2E-02 | 1.7E-01 |  7.0  2.1E-03  OK|
 +----------------------+------+---------+---------+------------------+

 ======================================================================
 |                        Timescale Information                       |
 ----------------------------------------------------------------------
 |       Equation       |         Type          |      Timescale      |
 +----------------------+-----------------------+---------------------+
 | U-Mom                | Auto Timescale        |     4.03707E-04     |
 | V-Mom                | Auto Timescale        |     4.03707E-04     |
 | W-Mom                | Auto Timescale        |     4.03707E-04     |
 | P-Mass               | Auto Timescale        |     4.03707E-04     |
 +----------------------+-----------------------+---------------------+
 | H-Energy             | Auto Timescale        |     4.03707E-04     |
 +----------------------+-----------------------+---------------------+
 | K-TurbKE             | Auto Timescale        |     4.03707E-04     |
 | O-TurbFreq           | Auto Timescale        |     4.03707E-04     |
 +----------------------+-----------------------+---------------------+

 ======================================================================
 OUTER LOOP ITERATION =   16                    CPU SECONDS = 1.389E+03
 ----------------------------------------------------------------------
 |       Equation       | Rate | RMS Res | Max Res |  Linear Solution |
 +----------------------+------+---------+---------+------------------+
 | U-Mom                | 0.94 | 4.9E-03 | 7.9E-02 |       1.2E-02  OK|
 | V-Mom                | 1.06 | 5.3E-04 | 1.2E-02 |       4.1E-02  OK|
 | W-Mom                | 1.05 | 5.3E-04 | 1.1E-02 |       4.3E-02  OK|
 | P-Mass               | 1.08 | 1.2E-04 | 1.7E-03 | 10.7  5.0E-02  OK|
 +----------------------+------+---------+---------+------------------+
 +--------------------------------------------------------------------+
 |                     ****** Notice ******                           |
 |  A wall has been placed at portion(s) of an OUTLET                 |
 |  boundary condition (at  55.3% of the faces,  10.7% of the area)   |
 |  to prevent fluid from flowing into the domain.                    |
 |  The boundary condition name is: outlet.                           |
 |  The fluid name is: Fluid 1.                                       |
 |  If this situation persists, consider switching                    |
 |  to an Opening type boundary condition instead.                    |
 +--------------------------------------------------------------------+
 | H-Energy             | 0.79 | 1.8E-02 | 3.3E-01 |  5.8  8.7E-03  OK|
 +----------------------+------+---------+---------+------------------+
 | K-TurbKE             | 1.21 | 1.3E-02 | 2.1E-01 |  5.8  1.0E-02  OK|
 | O-TurbFreq           | 0.88 | 1.1E-02 | 1.6E-01 |  7.0  2.6E-03  OK|
 +----------------------+------+---------+---------+------------------+

 ======================================================================
 OUTER LOOP ITERATION =   17                    CPU SECONDS = 1.462E+03
 ----------------------------------------------------------------------
 |       Equation       | Rate | RMS Res | Max Res |  Linear Solution |
 +----------------------+------+---------+---------+------------------+
 | U-Mom                | 1.07 | 5.2E-03 | 8.3E-02 |       1.8E-02  OK|
 | V-Mom                | 1.07 | 5.7E-04 | 1.8E-02 |       5.0E-02  OK|
 | W-Mom                | 1.07 | 5.7E-04 | 1.7E-02 |       5.2E-02  OK|
 | P-Mass               | 1.38 | 1.7E-04 | 5.3E-03 | 10.7  6.5E-02  OK|
 +----------------------+------+---------+---------+------------------+
 +--------------------------------------------------------------------+
 |                     ****** Notice ******                           |
 |  A wall has been placed at portion(s) of an OUTLET                 |
 |  boundary condition (at  59.5% of the faces,  13.0% of the area)   |
 |  to prevent fluid from flowing into the domain.                    |
 |  The boundary condition name is: outlet.                           |
 |  The fluid name is: Fluid 1.                                       |
 |  If this situation persists, consider switching                    |
 |  to an Opening type boundary condition instead.                    |
 +--------------------------------------------------------------------+
 | H-Energy             | 0.87 | 1.6E-02 | 3.0E-01 |  5.8  1.7E-02  OK|
 +----------------------+------+---------+---------+------------------+
 | K-TurbKE             | 1.03 | 1.3E-02 | 2.3E-01 |  5.8  1.1E-02  OK|
 | O-TurbFreq           | 0.83 | 9.1E-03 | 1.7E-01 |  7.0  3.5E-03  OK|
 +----------------------+------+---------+---------+------------------+

 ======================================================================
 OUTER LOOP ITERATION =   18                    CPU SECONDS = 1.535E+03
 ----------------------------------------------------------------------
 |       Equation       | Rate | RMS Res | Max Res |  Linear Solution |
 +----------------------+------+---------+---------+------------------+
 | U-Mom                | 0.87 | 4.5E-03 | 6.9E-02 |       2.4E-02  OK|
 | V-Mom                | 1.17 | 6.6E-04 | 1.7E-02 |       6.4E-02  OK|
 | W-Mom                | 1.17 | 6.6E-04 | 1.6E-02 |       6.8E-02  OK|
 | P-Mass               | 1.11 | 1.9E-04 | 5.4E-03 | 10.7  7.1E-02  OK|
 +----------------------+------+---------+---------+------------------+
 +--------------------------------------------------------------------+
 |                     ****** Notice ******                           |
 |  A wall has been placed at portion(s) of an OUTLET                 |
 |  boundary condition (at  64.0% of the faces,  15.5% of the area)   |
 |  to prevent fluid from flowing into the domain.                    |
 |  The boundary condition name is: outlet.                           |
 |  The fluid name is: Fluid 1.                                       |
 |  If this situation persists, consider switching                    |
 |  to an Opening type boundary condition instead.                    |
 +--------------------------------------------------------------------+
 | H-Energy             | 0.89 | 1.4E-02 | 2.5E-01 |  5.8  2.2E-02  OK|
 +----------------------+------+---------+---------+------------------+
 | K-TurbKE             | 0.79 | 1.1E-02 | 1.6E-01 |  5.8  1.1E-02  OK|
 | O-TurbFreq           | 0.84 | 7.6E-03 | 1.4E-01 |  7.0  4.5E-03  OK|
 +----------------------+------+---------+---------+------------------+

 ======================================================================
 OUTER LOOP ITERATION =   19                    CPU SECONDS = 1.604E+03
 ----------------------------------------------------------------------
 |       Equation       | Rate | RMS Res | Max Res |  Linear Solution |
 +----------------------+------+---------+---------+------------------+
 | U-Mom                | 0.82 | 3.7E-03 | 5.6E-02 |       3.2E-02  OK|
 | V-Mom                | 0.99 | 6.6E-04 | 1.2E-02 |       8.0E-02  OK|
 | W-Mom                | 0.99 | 6.6E-04 | 1.3E-02 |       8.6E-02  OK|
 | P-Mass               | 1.09 | 2.0E-04 | 4.6E-03 | 10.7  8.1E-02  OK|
 +----------------------+------+---------+---------+------------------+
 +--------------------------------------------------------------------+
 |                     ****** Notice ******                           |
 |  A wall has been placed at portion(s) of an OUTLET                 |
 |  boundary condition (at  65.0% of the faces,  15.9% of the area)   |
 |  to prevent fluid from flowing into the domain.                    |
 |  The boundary condition name is: outlet.                           |
 |  The fluid name is: Fluid 1.                                       |
 |  If this situation persists, consider switching                    |
 |  to an Opening type boundary condition instead.                    |
 +--------------------------------------------------------------------+
 | H-Energy             | 0.88 | 1.2E-02 | 2.1E-01 |  5.8  1.9E-02  OK|
 +----------------------+------+---------+---------+------------------+
 | K-TurbKE             | 0.79 | 8.4E-03 | 1.4E-01 |  5.8  1.0E-02  OK|
 | O-TurbFreq           | 0.89 | 6.8E-03 | 9.7E-02 | 12.8  1.4E-04  OK|
 +----------------------+------+---------+---------+------------------+

 ======================================================================
 OUTER LOOP ITERATION =   20                    CPU SECONDS = 1.669E+03
 ----------------------------------------------------------------------
 |       Equation       | Rate | RMS Res | Max Res |  Linear Solution |
 +----------------------+------+---------+---------+------------------+
 | U-Mom                | 0.84 | 3.1E-03 | 4.2E-02 |       3.7E-02  OK|
 | V-Mom                | 0.88 | 5.8E-04 | 1.0E-02 |       9.4E-02  OK|
 | W-Mom                | 0.88 | 5.8E-04 | 1.0E-02 |       1.0E-01  ok|
 | P-Mass               | 1.03 | 2.1E-04 | 6.6E-03 | 10.7  9.4E-02  OK|
 +----------------------+------+---------+---------+------------------+
 +--------------------------------------------------------------------+
 |                     ****** Notice ******                           |
 |  A wall has been placed at portion(s) of an OUTLET                 |
 |  boundary condition (at  65.0% of the faces,  15.9% of the area)   |
 |  to prevent fluid from flowing into the domain.                    |
 |  The boundary condition name is: outlet.                           |
 |  The fluid name is: Fluid 1.                                       |
 |  If this situation persists, consider switching                    |
 |  to an Opening type boundary condition instead.                    |
 +--------------------------------------------------------------------+
 | H-Energy             | 0.79 | 9.7E-03 | 1.6E-01 |  5.8  1.4E-02  OK|
 +----------------------+------+---------+---------+------------------+
 | K-TurbKE             | 0.78 | 6.5E-03 | 1.0E-01 |  5.8  7.7E-03  OK|
 | O-TurbFreq           | 0.89 | 6.0E-03 | 1.1E-01 | 12.7  1.7E-04  OK|
 +----------------------+------+---------+---------+------------------+

 ======================================================================
 |                        Timescale Information                       |
 ----------------------------------------------------------------------
 |       Equation       |         Type          |      Timescale      |
 +----------------------+-----------------------+---------------------+
 | U-Mom                | Auto Timescale        |     4.10723E-04     |
 | V-Mom                | Auto Timescale        |     4.10723E-04     |
 | W-Mom                | Auto Timescale        |     4.10723E-04     |
 | P-Mass               | Auto Timescale        |     4.10723E-04     |
 +----------------------+-----------------------+---------------------+
 | H-Energy             | Auto Timescale        |     4.10723E-04     |
 +----------------------+-----------------------+---------------------+
 | K-TurbKE             | Auto Timescale        |     4.10723E-04     |
 | O-TurbFreq           | Auto Timescale        |     4.10723E-04     |
 +----------------------+-----------------------+---------------------+

 ======================================================================
 OUTER LOOP ITERATION =   21                    CPU SECONDS = 1.733E+03
 ----------------------------------------------------------------------
 |       Equation       | Rate | RMS Res | Max Res |  Linear Solution |
 +----------------------+------+---------+---------+------------------+
 | U-Mom                | 0.85 | 2.6E-03 | 3.4E-02 |       3.5E-02  OK|
 | V-Mom                | 0.87 | 5.0E-04 | 1.3E-02 |       1.0E-01  ok|
 | W-Mom                | 0.87 | 5.1E-04 | 1.2E-02 |       1.1E-01  ok|
 | P-Mass               | 1.14 | 2.4E-04 | 9.2E-03 | 10.7  7.3E-02  OK|
 +----------------------+------+---------+---------+------------------+
 +--------------------------------------------------------------------+
 |                     ****** Notice ******                           |
 |  A wall has been placed at portion(s) of an OUTLET                 |
 |  boundary condition (at  65.0% of the faces,  15.9% of the area)   |
 |  to prevent fluid from flowing into the domain.                    |
 |  The boundary condition name is: outlet.                           |
 |  The fluid name is: Fluid 1.                                       |
 |  If this situation persists, consider switching                    |
 |  to an Opening type boundary condition instead.                    |
 +--------------------------------------------------------------------+
 | H-Energy             | 0.82 | 7.9E-03 | 1.3E-01 |  5.8  1.1E-02  OK|
 +----------------------+------+---------+---------+------------------+
 | K-TurbKE             | 0.78 | 5.0E-03 | 8.1E-02 |  5.8  8.6E-03  OK|
 | O-TurbFreq           | 0.87 | 5.2E-03 | 1.0E-01 | 12.6  1.9E-04  OK|
 +----------------------+------+---------+---------+------------------+

 ======================================================================
 OUTER LOOP ITERATION =   22                    CPU SECONDS = 1.796E+03
 ----------------------------------------------------------------------
 |       Equation       | Rate | RMS Res | Max Res |  Linear Solution |
 +----------------------+------+---------+---------+------------------+
 | U-Mom                | 0.89 | 2.4E-03 | 3.3E-02 |       3.0E-02  OK|
 | V-Mom                | 1.04 | 5.2E-04 | 1.1E-02 |       9.2E-02  OK|
 | W-Mom                | 1.03 | 5.2E-04 | 1.1E-02 |       1.0E-01  ok|
 | P-Mass               | 1.27 | 3.1E-04 | 1.5E-02 | 10.7  4.9E-02  OK|
 +----------------------+------+---------+---------+------------------+
 +--------------------------------------------------------------------+
 |                     ****** Notice ******                           |
 |  A wall has been placed at portion(s) of an OUTLET                 |
 |  boundary condition (at  65.0% of the faces,  15.9% of the area)   |
 |  to prevent fluid from flowing into the domain.                    |
 |  The boundary condition name is: outlet.                           |
 |  The fluid name is: Fluid 1.                                       |
 |  If this situation persists, consider switching                    |
 |  to an Opening type boundary condition instead.                    |
 +--------------------------------------------------------------------+
 | H-Energy             | 0.85 | 6.8E-03 | 1.1E-01 |  5.8  9.8E-03  OK|
 +----------------------+------+---------+---------+------------------+
 | K-TurbKE             | 0.86 | 4.3E-03 | 6.5E-02 |  5.8  1.2E-02  OK|
 | O-TurbFreq           | 0.88 | 4.6E-03 | 9.4E-02 | 12.6  1.9E-04  OK|
 +----------------------+------+---------+---------+------------------+

 ======================================================================
 OUTER LOOP ITERATION =   23                    CPU SECONDS = 1.872E+03
 ----------------------------------------------------------------------
 |       Equation       | Rate | RMS Res | Max Res |  Linear Solution |
 +----------------------+------+---------+---------+------------------+
 | U-Mom                | 0.95 | 2.2E-03 | 3.1E-02 |       2.3E-02  OK|
 | V-Mom                | 0.98 | 5.1E-04 | 1.3E-02 |       7.9E-02  OK|
 | W-Mom                | 1.00 | 5.2E-04 | 1.4E-02 |       8.6E-02  OK|
 | P-Mass               | 0.96 | 2.9E-04 | 1.3E-02 | 10.7  5.3E-02  OK|
 +----------------------+------+---------+---------+------------------+
 +--------------------------------------------------------------------+
 |                     ****** Notice ******                           |
 |  A wall has been placed at portion(s) of an OUTLET                 |
 |  boundary condition (at  65.0% of the faces,  15.9% of the area)   |
 |  to prevent fluid from flowing into the domain.                    |
 |  The boundary condition name is: outlet.                           |
 |  The fluid name is: Fluid 1.                                       |
 |  If this situation persists, consider switching                    |
 |  to an Opening type boundary condition instead.                    |
 +--------------------------------------------------------------------+
 | H-Energy             | 0.83 | 5.6E-03 | 8.6E-02 |  5.8  1.3E-02  OK|
 +----------------------+------+---------+---------+------------------+
 | K-TurbKE             | 0.91 | 3.9E-03 | 5.3E-02 |  5.8  1.4E-02  OK|
 | O-TurbFreq           | 0.93 | 4.3E-03 | 1.0E-01 | 12.6  1.8E-04  OK|
 +----------------------+------+---------+---------+------------------+

 ======================================================================
 OUTER LOOP ITERATION =   24                    CPU SECONDS = 1.946E+03
 ----------------------------------------------------------------------
 |       Equation       | Rate | RMS Res | Max Res |  Linear Solution |
 +----------------------+------+---------+---------+------------------+
 | U-Mom                | 1.01 | 2.3E-03 | 3.3E-02 |       1.8E-02  OK|
 | V-Mom                | 0.98 | 5.0E-04 | 1.3E-02 |       7.0E-02  OK|
 | W-Mom                | 0.98 | 5.1E-04 | 1.4E-02 |       7.4E-02  OK|
 | P-Mass               | 1.08 | 3.2E-04 | 1.7E-02 | 10.7  3.8E-02  OK|
 +----------------------+------+---------+---------+------------------+
 +--------------------------------------------------------------------+
 |                     ****** Notice ******                           |
 |  A wall has been placed at portion(s) of an OUTLET                 |
 |  boundary condition (at  65.0% of the faces,  15.9% of the area)   |
 |  to prevent fluid from flowing into the domain.                    |
 |  The boundary condition name is: outlet.                           |
 |  The fluid name is: Fluid 1.                                       |
 |  If this situation persists, consider switching                    |
 |  to an Opening type boundary condition instead.                    |
 +--------------------------------------------------------------------+
 | H-Energy             | 1.00 | 5.6E-03 | 8.7E-02 |  5.8  1.7E-02  OK|
 +----------------------+------+---------+---------+------------------+
 | K-TurbKE             | 0.91 | 3.6E-03 | 5.2E-02 |  5.8  1.3E-02  OK|
 | O-TurbFreq           | 0.93 | 4.0E-03 | 9.9E-02 | 12.4  1.5E-04  OK|
 +----------------------+------+---------+---------+------------------+

 ======================================================================
 OUTER LOOP ITERATION =   25                    CPU SECONDS = 2.020E+03
 ----------------------------------------------------------------------
 |       Equation       | Rate | RMS Res | Max Res |  Linear Solution |
 +----------------------+------+---------+---------+------------------+
 | U-Mom                | 1.00 | 2.3E-03 | 3.6E-02 |       1.5E-02  OK|
 | V-Mom                | 1.11 | 5.6E-04 | 1.1E-02 |       6.3E-02  OK|
 | W-Mom                | 1.10 | 5.6E-04 | 1.1E-02 |       6.6E-02  OK|
 | P-Mass               | 1.18 | 3.8E-04 | 1.9E-02 | 10.7  2.9E-02  OK|
 +----------------------+------+---------+---------+------------------+
 +--------------------------------------------------------------------+
 |                     ****** Notice ******                           |
 |  A wall has been placed at portion(s) of an OUTLET                 |
 |  boundary condition (at  65.0% of the faces,  15.9% of the area)   |
 |  to prevent fluid from flowing into the domain.                    |
 |  The boundary condition name is: outlet.                           |
 |  The fluid name is: Fluid 1.                                       |
 |  If this situation persists, consider switching                    |
 |  to an Opening type boundary condition instead.                    |
 +--------------------------------------------------------------------+
 | H-Energy             | 1.03 | 5.8E-03 | 1.0E-01 |  5.8  1.9E-02  OK|
 +----------------------+------+---------+---------+------------------+
 | K-TurbKE             | 0.95 | 3.4E-03 | 5.1E-02 |  5.8  1.1E-02  OK|
 | O-TurbFreq           | 0.90 | 3.6E-03 | 8.6E-02 | 12.4  1.2E-04  OK|
 +----------------------+------+---------+---------+------------------+

 ======================================================================
 |                        Timescale Information                       |
 ----------------------------------------------------------------------
 |       Equation       |         Type          |      Timescale      |
 +----------------------+-----------------------+---------------------+
 | U-Mom                | Auto Timescale        |     4.26808E-04     |
 | V-Mom                | Auto Timescale        |     4.26808E-04     |
 | W-Mom                | Auto Timescale        |     4.26808E-04     |
 | P-Mass               | Auto Timescale        |     4.26808E-04     |
 +----------------------+-----------------------+---------------------+
 | H-Energy             | Auto Timescale        |     4.26808E-04     |
 +----------------------+-----------------------+---------------------+
 | K-TurbKE             | Auto Timescale        |     4.26808E-04     |
 | O-TurbFreq           | Auto Timescale        |     4.26808E-04     |
 +----------------------+-----------------------+---------------------+

 ======================================================================
 OUTER LOOP ITERATION =   26                    CPU SECONDS = 2.094E+03
 ----------------------------------------------------------------------
 |       Equation       | Rate | RMS Res | Max Res |  Linear Solution |
 +----------------------+------+---------+---------+------------------+
 | U-Mom                | 1.01 | 2.3E-03 | 2.9E-02 |       1.4E-02  OK|
 | V-Mom                | 0.99 | 5.5E-04 | 1.3E-02 |       6.2E-02  OK|
 | W-Mom                | 0.99 | 5.5E-04 | 1.4E-02 |       6.5E-02  OK|
 | P-Mass               | 0.93 | 3.5E-04 | 1.3E-02 | 10.7  3.7E-02  OK|
 +----------------------+------+---------+---------+------------------+
 +--------------------------------------------------------------------+
 |                     ****** Notice ******                           |
 |  A wall has been placed at portion(s) of an OUTLET                 |
 |  boundary condition (at  65.0% of the faces,  15.9% of the area)   |
 |  to prevent fluid from flowing into the domain.                    |
 |  The boundary condition name is: outlet.                           |
 |  The fluid name is: Fluid 1.                                       |
 |  If this situation persists, consider switching                    |
 |  to an Opening type boundary condition instead.                    |
 +--------------------------------------------------------------------+
 | H-Energy             | 0.84 | 4.9E-03 | 8.7E-02 |  5.8  1.9E-02  OK|
 +----------------------+------+---------+---------+------------------+
 | K-TurbKE             | 1.06 | 3.6E-03 | 5.9E-02 |  5.8  7.9E-03  OK|
 | O-TurbFreq           | 1.03 | 3.7E-03 | 8.5E-02 | 12.4  1.0E-04  OK|
 +----------------------+------+---------+---------+------------------+

 ======================================================================
 OUTER LOOP ITERATION =   27                    CPU SECONDS = 2.169E+03
 ----------------------------------------------------------------------
 |       Equation       | Rate | RMS Res | Max Res |  Linear Solution |
 +----------------------+------+---------+---------+------------------+
 | U-Mom                | 1.00 | 2.3E-03 | 2.6E-02 |       1.2E-02  OK|
 | V-Mom                | 0.94 | 5.2E-04 | 1.4E-02 |       5.7E-02  OK|
 | W-Mom                | 0.93 | 5.2E-04 | 1.4E-02 |       6.1E-02  OK|
 | P-Mass               | 1.07 | 3.7E-04 | 1.9E-02 | 10.7  2.8E-02  OK|
 +----------------------+------+---------+---------+------------------+
 +--------------------------------------------------------------------+
 |                     ****** Notice ******                           |
 |  A wall has been placed at portion(s) of an OUTLET                 |
 |  boundary condition (at  65.0% of the faces,  15.9% of the area)   |
 |  to prevent fluid from flowing into the domain.                    |
 |  The boundary condition name is: outlet.                           |
 |  The fluid name is: Fluid 1.                                       |
 |  If this situation persists, consider switching                    |
 |  to an Opening type boundary condition instead.                    |
 +--------------------------------------------------------------------+
 | H-Energy             | 0.98 | 4.7E-03 | 8.6E-02 |  5.9  1.7E-02  OK|
 +----------------------+------+---------+---------+------------------+
 | K-TurbKE             | 1.14 | 4.1E-03 | 6.7E-02 |  5.8  5.6E-03  OK|
 | O-TurbFreq           | 1.15 | 4.2E-03 | 9.3E-02 | 12.4  7.8E-05  OK|
 +----------------------+------+---------+---------+------------------+

 ======================================================================
 OUTER LOOP ITERATION =   28                    CPU SECONDS = 2.243E+03
 ----------------------------------------------------------------------
 |       Equation       | Rate | RMS Res | Max Res |  Linear Solution |
 +----------------------+------+---------+---------+------------------+
 | U-Mom                | 0.98 | 2.2E-03 | 3.2E-02 |       9.8E-03  OK|
[...]
 | U-Mom                | 1.08 | 3.4E-04 | 7.1E-03 |       1.1E-02  OK|
 | V-Mom                | 1.02 | 6.4E-05 | 2.6E-03 |       4.5E-02  OK|
 | W-Mom                | 1.07 | 6.8E-05 | 1.9E-03 |       4.1E-02  OK|
 | P-Mass               | 1.07 | 1.5E-05 | 5.2E-04 | 10.7  5.9E-02  OK|
 +----------------------+------+---------+---------+------------------+
 +--------------------------------------------------------------------+
 |                     ****** Notice ******                           |
 |  A wall has been placed at portion(s) of an OUTLET                 |
 |  boundary condition (at  53.4% of the faces,  16.1% of the area)   |
 |  to prevent fluid from flowing into the domain.                    |
 |  The boundary condition name is: outlet.                           |
 |  The fluid name is: Fluid 1.                                       |
 |  If this situation persists, consider switching                    |
 |  to an Opening type boundary condition instead.                    |
 +--------------------------------------------------------------------+
 | H-Energy             | 1.06 | 6.8E-04 | 2.0E-02 |  5.9  2.2E-02  OK|
 +----------------------+------+---------+---------+------------------+
 | K-TurbKE             | 1.08 | 7.8E-04 | 2.0E-02 |  5.8  3.8E-03  OK|
 | O-TurbFreq           | 0.90 | 7.4E-04 | 3.2E-02 | 12.1  3.7E-05  OK|
 +----------------------+------+---------+---------+------------------+

 ======================================================================
 OUTER LOOP ITERATION =  999                    CPU SECONDS = 6.723E+04
 ----------------------------------------------------------------------
 |       Equation       | Rate | RMS Res | Max Res |  Linear Solution |
 +----------------------+------+---------+---------+------------------+
 | U-Mom                | 1.05 | 3.6E-04 | 7.1E-03 |       9.7E-03  OK|
 | V-Mom                | 1.07 | 6.8E-05 | 3.1E-03 |       4.2E-02  OK|
 | W-Mom                | 1.09 | 7.4E-05 | 2.4E-03 |       3.8E-02  OK|
 | P-Mass               | 1.09 | 1.6E-05 | 5.7E-04 | 10.7  5.3E-02  OK|
 +----------------------+------+---------+---------+------------------+
 +--------------------------------------------------------------------+
 |                     ****** Notice ******                           |
 |  A wall has been placed at portion(s) of an OUTLET                 |
 |  boundary condition (at  53.5% of the faces,  16.1% of the area)   |
 |  to prevent fluid from flowing into the domain.                    |
 |  The boundary condition name is: outlet.                           |
 |  The fluid name is: Fluid 1.                                       |
 |  If this situation persists, consider switching                    |
 |  to an Opening type boundary condition instead.                    |
 +--------------------------------------------------------------------+
 | H-Energy             | 1.07 | 7.3E-04 | 2.3E-02 |  5.9  1.8E-02  OK|
 +----------------------+------+---------+---------+------------------+
 | K-TurbKE             | 1.05 | 8.3E-04 | 2.3E-02 |  5.9  3.3E-03  OK|
 | O-TurbFreq           | 0.93 | 6.8E-04 | 2.5E-02 | 12.1  3.5E-05  OK|
 +----------------------+------+---------+---------+------------------+

 ======================================================================
 OUTER LOOP ITERATION = 1000                    CPU SECONDS = 6.730E+04
 ----------------------------------------------------------------------
 |       Equation       | Rate | RMS Res | Max Res |  Linear Solution |
 +----------------------+------+---------+---------+------------------+
 | U-Mom                | 1.02 | 3.7E-04 | 7.3E-03 |       9.0E-03  OK|
 | V-Mom                | 1.10 | 7.5E-05 | 3.3E-03 |       4.1E-02  OK|
 | W-Mom                | 1.10 | 8.2E-05 | 2.8E-03 |       3.6E-02  OK|
 | P-Mass               | 1.09 | 1.8E-05 | 6.4E-04 | 10.7  5.0E-02  OK|
 +----------------------+------+---------+---------+------------------+
 +--------------------------------------------------------------------+
 |                     ****** Notice ******                           |
 |  A wall has been placed at portion(s) of an OUTLET                 |
 |  boundary condition (at  53.6% of the faces,  16.2% of the area)   |
 |  to prevent fluid from flowing into the domain.                    |
 |  The boundary condition name is: outlet.                           |
 |  The fluid name is: Fluid 1.                                       |
 |  If this situation persists, consider switching                    |
 |  to an Opening type boundary condition instead.                    |
 +--------------------------------------------------------------------+
 | H-Energy             | 1.06 | 7.8E-04 | 2.4E-02 |  5.9  1.5E-02  OK|
 +----------------------+------+---------+---------+------------------+
 | K-TurbKE             | 1.02 | 8.4E-04 | 2.6E-02 |  5.8  3.0E-03  OK|
 | O-TurbFreq           | 0.98 | 6.7E-04 | 2.7E-02 | 12.2  3.3E-05  OK|
 +----------------------+------+---------+---------+------------------+
                   
 CFD Solver finished: Sat Mar 09 06:14:04 2019
 CFD Solver wall clock seconds: 1.1185E+04

 ======================================================================
              Termination and Interrupt Condition Summary
 ======================================================================
    
 CFD Solver: Run duration reached
   (Maximum number of outer iterations)

 ======================================================================
              Boundary Flow and Total Source Term Summary
 ======================================================================

 +--------------------------------------------------------------------+
 |                               U-Mom                                |
 +--------------------------------------------------------------------+
 Boundary         : inlet                                   1.9263E+04
 Boundary         : outlet                                 -2.0004E+04
 Boundary         : wall                                    7.4758E+02
                                                           -----------
 Domain Imbalance :                                         5.8072E+00

 +--------------------------------------------------------------------+
 |                               V-Mom                                |
 +--------------------------------------------------------------------+
 Boundary         : inlet                                   3.7551E-05
 Boundary         : outlet                                  2.0645E+01
 Boundary         : wall                                   -1.3138E+01
                                                           -----------
 Domain Imbalance :                                         7.5066E+00

 +--------------------------------------------------------------------+
 |                               W-Mom                                |
 +--------------------------------------------------------------------+
 Boundary         : inlet                                   9.0322E-08
 Boundary         : outlet                                 -4.9893E+01
 Boundary         : wall                                    3.7166E+01
                                                           -----------
 Domain Imbalance :                                        -1.2727E+01

 +--------------------------------------------------------------------+
 |                               P-Mass                               |
 +--------------------------------------------------------------------+
 Boundary         : inlet                                   2.8440E+01
 Boundary         : outlet                                 -2.8453E+01
                                                           -----------
 Domain Imbalance :                                        -1.2712E-02

 +--------------------------------------------------------------------+
 |                              H-Energy                              |
 +--------------------------------------------------------------------+
 Boundary         : inlet                                   4.8833E+05
 Bnd Src/Visc Work: inlet                                   5.7777E-02
 Boundary         : outlet                                 -4.8842E+05
 Bnd Src/Visc Work: outlet                                 -3.3064E-01
 Domain Src (Neg) : Default Domain                         -2.4645E+05
 Domain Src (Pos) : Default Domain                          2.4645E+05
                                                           -----------
 Domain Imbalance :                                        -9.2034E+01


 +--------------------------------------------------------------------+
 |                     Normalised Imbalance Summary                   |
 +--------------------------------------------------------------------+
 |       Equation       |      Maximum Flow     |     Imbalance (%)   |
 +--------------------------------------------------------------------+
 | U-Mom                |       2.0004E+04      |        0.0290       |
 | V-Mom                |       2.0004E+04      |        0.0375       |
 | W-Mom                |       2.0004E+04      |       -0.0636       |
 | P-Mass               |       2.8453E+01      |       -0.0447       |
 +----------------------+-----------------------+---------------------+
 | H-Energy             |       4.8842E+05      |       -0.0188       |
 +----------------------+-----------------------+---------------------+

 ======================================================================
                     Wall Force and Moment Summary
 ======================================================================
                                                                          
 Notes:
 1. Pressure integrals exclude the reference pressure.  To include
    it, set the expert parameter 'include pref in forces = t'.


 +--------------------------------------------------------------------+
 |                      Pressure Force On Walls                       |
 +--------------------------------------------------------------------+
                                    X-Comp.      Y-Comp.      Z-Comp.

 Domain Group: Default Domain

 wall                            -8.6157E+02   1.3177E+01  -3.7283E+01
                                  -----------  -----------  -----------
 Domain Group Totals :           -8.6157E+02   1.3177E+01  -3.7283E+01


 +--------------------------------------------------------------------+
 |                       Viscous Force On Walls                       |
 +--------------------------------------------------------------------+
                                    X-Comp.      Y-Comp.      Z-Comp.

 Domain Group: Default Domain

 wall                             1.1399E+02  -3.9294E-02   1.1682E-01
                                  -----------  -----------  -----------
 Domain Group Totals :            1.1399E+02  -3.9294E-02   1.1682E-01


 +--------------------------------------------------------------------+
 |                      Pressure Moment On Walls                      |
 +--------------------------------------------------------------------+
                                    X-Comp.      Y-Comp.      Z-Comp.

 Domain Group: Default Domain

 wall                             6.3197E-04   1.4354E+01   1.7810E+00
                                  -----------  -----------  -----------
 Domain Group Totals :            6.3197E-04   1.4354E+01   1.7810E+00


 +--------------------------------------------------------------------+
 |                       Viscous Moment On Walls                      |
 +--------------------------------------------------------------------+
                                    X-Comp.      Y-Comp.      Z-Comp.

 Domain Group: Default Domain

 wall                            -3.9062E-03   1.4019E-02   1.2220E-02
                                  -----------  -----------  -----------
 Domain Group Totals :           -3.9062E-03   1.4019E-02   1.2220E-02


 +--------------------------------------------------------------------+
 |                   Locations of Maximum Residuals                   |
 +--------------------------------------------------------------------+
 |       Equation       |      Domain Name      |     Node Number     |
 +--------------------------------------------------------------------+
 | U-Mom                | Default Domain        |         277500      |
 | V-Mom                | Default Domain        |         289907      |
 | W-Mom                | Default Domain        |         289932      |
 | P-Mass               | Default Domain        |         289361      |
 +----------------------+-----------------------+---------------------+
 | H-Energy             | Default Domain        |         279668      |
 +----------------------+-----------------------+---------------------+
 | K-TurbKE             | Default Domain        |         284827      |
 | O-TurbFreq           | Default Domain        |          24617      |
 +----------------------+-----------------------+---------------------+

 ======================================================================
 |                     False Transient Information                    |
 +--------------------------------------------------------------------+
 |       Equation       |         Type          | Elapsed Pseudo-Time |
 +--------------------------------------------------------------------+
 | U-Mom                | Auto Timescale        |     4.67758E-01     |
 | V-Mom                | Auto Timescale        |     4.67758E-01     |
 | W-Mom                | Auto Timescale        |     4.67758E-01     |
 | P-Mass               | Auto Timescale        |     4.67758E-01     |
 +----------------------+-----------------------+---------------------+
 | H-Energy             | Auto Timescale        |     4.67758E-01     |
 +----------------------+-----------------------+---------------------+
 | K-TurbKE             | Auto Timescale        |     4.67758E-01     |
 | O-TurbFreq           | Auto Timescale        |     4.67758E-01     |
 +----------------------+-----------------------+---------------------+

 +--------------------------------------------------------------------+
 |                     Average Scale Information                      |
 +--------------------------------------------------------------------+

 Domain Name : Default Domain
     Global Length                                         = 3.6978E-01
     Minimum Extent                                        = 3.2700E-01
     Maximum Extent                                        = 8.4000E-01
     Density                                               = 1.7553E+00
     Dynamic Viscosity                                     = 1.8310E-05
     Velocity                                              = 2.6055E+02
     Advection Time                                        = 1.4192E-03
     Reynolds Number                                       = 9.2361E+06
     Speed of Sound                                        = 3.3485E+02
     Mach Number                                           = 7.7811E-01
     Thermal Conductivity                                  = 2.6100E-02
     Specific Heat Capacity at Constant Pressure           = 1.0044E+03
     Specific Heat Capacity at Constant Volume             = 7.1730E+02
     Specific Heat Ratio                                   = 1.4003E+00
     Prandtl Number                                        = 7.0462E-01
     Temperature Range                                     = 9.0783E+01

 +--------------------------------------------------------------------+
 |                     Variable Range Information                     |
 +--------------------------------------------------------------------+

 Domain Name : Default Domain
 +--------------------------------------------------------------------+
 |      Variable Name                         |    min    |    max    |
 +--------------------------------------------------------------------+
 | Density                                    |  9.72E-01 |  2.51E+00 |
 | Specific Heat Capacity at Constant Pressure|  1.00E+03 |  1.00E+03 |
 | Dynamic Viscosity                          |  1.83E-05 |  1.83E-05 |
 | Thermal Conductivity                       |  2.61E-02 |  2.61E-02 |
 | Isothermal Compressibility                 |  4.61E-06 |  1.33E-05 |
 | Static Entropy                             | -2.12E+02 | -4.90E+00 |
 | Velocity u                                 | -1.06E+02 |  4.27E+02 |
 | Velocity v                                 | -8.25E+01 |  8.31E+01 |
 | Velocity w                                 | -7.29E+01 |  7.43E+01 |
 | Pressure                                   |  7.53E+04 |  2.17E+05 |
 | Turbulence Kinetic Energy                  |  3.12E-01 |  4.83E+03 |
 | Turbulence Eddy Frequency                  |  4.91E+03 |  6.79E+05 |
 | Eddy Viscosity                             |  6.07E-05 |  3.03E-01 |
 | Temperature                                |  2.24E+02 |  3.15E+02 |
 | Static Enthalpy                            | -7.44E+04 |  1.68E+04 |
 | Total Enthalpy                             |  1.27E+04 |  1.79E+04 |
 | Wall Scale                                 | -2.08E-08 |  5.84E-03 |
 | Wall Distance                              |  0.00E+00 |  1.03E-01 |
 +--------------------------------------------------------------------+

 +--------------------------------------------------------------------+
 |           CPU Requirements of Numerical Solution - Total           |
 +--------------------------------------------------------------------+

 Subsystem Name                  Discretization       Linear Solution
                                (secs.   %total)     (secs.   %total) 
 ----------------------------------------------------------------------
 Wall Scale                     1.36E+01   0.0 %     6.38E+01   0.1 %
 Momentum and Mass              2.37E+04  35.1 %     9.08E+03  13.5 %
 Heat Transfer                  6.74E+03  10.0 %     5.14E+03   7.6 %
 TurbKE and TurbFreq            5.78E+03   8.6 %     8.68E+03  12.9 %
                                -------- -------     --------  ------
 Subsystem Summary              3.62E+04  53.7 %     2.30E+04  34.1 %

 File Reading                   1.59E+00    0.0 %
 Search Calculations            1.58E-02    0.0 %
 Variable Updates               7.49E+03   11.1 %
 File Writing                   3.33E+01    0.0 %
 Miscellaneous                  7.32E+02    1.1 %
                                --------
 Total                          6.74E+04

 +--------------------------------------------------------------------+
 |                   Job Information at End of Run                    |
 +--------------------------------------------------------------------+

 Job finished:   Sat Mar 09 06:14:11 2019

 Total wall clock time: 1.123E+04 seconds
             or: (          0:         3:         7:    13.917 )
                 (       Days:     Hours:   Minutes:   Seconds )



 --> Final synchronization point reached by all partitions.
End of solution stage.

 +--------------------------------------------------------------------+
 | The results from this run of the ANSYS CFX Solver have been        |
 | written to C:/Users/Hussien                                        |
 | Hafez/AppData/Local/Temp/WB_DESKTOP-5JFTL9U_Hussien                |
 | Hafez_12036_7/unsaved_project_pending/dp0_CFX_Solution/Fluid Flow  |
 | CFX_001.res                                                        |
 +--------------------------------------------------------------------+


 +--------------------------------------------------------------------+
 | For CFX runs launched from Workbench, the final locations of       |
 | directories and files generated may differ from those shown.       |
 +--------------------------------------------------------------------+


This run of the ANSYS CFX Solver has finished.
